
.SUBCKT PIPO_and_Combinational clk rst xin0 xin1 xin2 xin3 yin0 yin1 yin2 yin3 vddio r_out vdd vss


c1 vdd vss 1.05148e-15
c2 clk vss 169.772e-18
c3 rst vss 208.837e-18
c4 r_out vss 36.4081e-18
c5 vddio vss 49.3446e-18
c6 xin0 vss 47.6761e-18
c7 xin1 vss 53.9727e-18
c8 xin2 vss 57.9603e-18
c9 xin3 vss 60.8749e-18
c10 yin0 vss 43.5999e-18
c11 yin1 vss 49.5315e-18
c12 yin2 vss 51.5228e-18
c13 yin3 vss 60.2306e-18
c14 clk4 vss 27.1014e-18
c15 clk4b vss 95.3554e-18
c16 clkb vss 216.414e-18
c17 clk2 vss 25.8153e-18
c18 x0 vss 40.1396e-18
c19 x1 vss 40.2644e-18
c20 x2 vss 44.6484e-18
c21 x3 vss 47.1718e-18
c22 y0 vss 53.7371e-18
c23 y1 vss 53.4488e-18
c24 y2 vss 55.5271e-18
c25 y3 vss 55.321e-18
c26 net12 vss 92.2494e-18
c27 c1 vss 51.9719e-18
c28 c0 vss 51.689e-18
c29 r2 vss 74.4362e-18
c30 r1 vss 68.8447e-18
c31 a0 vss 104.934e-18
c32 a1 vss 55.9119e-18
c33 s0 vss 50.178e-18
c34 s1 vss 56.6335e-18
c35 r0 vss 141.399e-18
c36 a2 vss 103.688e-18
c37 a3 vss 55.4149e-18
c38 serial_out vss 105.736e-18
c39 i12__net3 vss 59.6419e-18
c40 i6__net3 vss 129.969e-18
c41 net5 vss 112.682e-18
c42 r_in vss 108.714e-18
c43 i12__net1 vss 62.8924e-18
c44 i12__net2 vss 58.5464e-18
c45 i11__net1 vss 108.186e-18
c46 i6__net2 vss 110.307e-18
c47 i6__abar vss 69.1677e-18
c48 i6__net4 vss 95.9298e-18
c49 i6__bbar vss 65.3991e-18
c50 i6__net1 vss 117.199e-18
c51 i5__net3 vss 135.29e-18
c52 i5__net2 vss 107.96e-18
c53 i5__abar vss 68.4173e-18
c54 i5__net4 vss 95.2949e-18
c55 i5__bbar vss 67.3721e-18
c56 i5__net1 vss 108.097e-18
c57 i4__net3 vss 121.614e-18
c58 i4__net2 vss 112.075e-18
c59 i4__abar vss 67.6781e-18
c60 i4__net4 vss 95.3001e-18
c61 i4__bbar vss 66.0874e-18
c62 i4__net1 vss 111.112e-18
c63 i3__net3 vss 121.249e-18
c64 i3__net2 vss 110.488e-18
c65 i3__abar vss 68.2929e-18
c66 i3__net4 vss 94.8226e-18
c67 i3__bbar vss 67.0316e-18
c68 i3__net1 vss 108.836e-18
c69 i14__i5__net3 vss 76.6851e-18
c70 i14__i5__net4 vss 98.5202e-18
c71 i14__i5__net5 vss 54.5552e-18
c72 i14__i5__net2 vss 79.2728e-18
c73 i14__i5__net1 vss 105.925e-18
c74 i14__i5__rstb vss 27.385e-18
c75 i14__i4__net3 vss 83.0685e-18
c76 i14__i4__net4 vss 98.4859e-18
c77 i14__i4__net5 vss 54.1774e-18
c78 i14__i4__net2 vss 77.8714e-18
c79 i14__i4__net1 vss 108.483e-18
c80 i14__net15 vss 59.0727e-18
c81 i14__i4__rstb vss 27.5166e-18
c82 i14__i3__net3 vss 82.9195e-18
c83 i14__i3__net4 vss 98.5002e-18
c84 i14__i3__net5 vss 54.4651e-18
c85 i14__i3__net2 vss 77.5308e-18
c86 i14__i3__net1 vss 108.614e-18
c87 i14__net9 vss 58.8515e-18
c88 i14__i3__rstb vss 27.5366e-18
c89 i14__i7__net2 vss 105.666e-18
c90 i14__net14 vss 131.807e-18
c91 i14__i2__net1 vss 33.145e-18
c92 i14__i1__net1 vss 33.0593e-18
c93 i14__net8 vss 129.993e-18
c94 i14__net2 vss 181.644e-18
c95 i14__i0__net1 vss 32.3656e-18
c96 i14__shift vss 33.3836e-18
c97 i14__i7__net1 vss 24.9123e-18
c98 i8__net1 vss 88.8747e-18
c99 i8__carry_bar vss 44.4402e-18
c100 i8__net49 vss 121.717e-18
c101 i8__net51 vss 58.2722e-18
c102 i8__net50 vss 97.7847e-18
c103 i8__net52 vss 103.673e-18
c104 i9__net1 vss 84.7298e-18
c105 i9__carry_bar vss 42.7386e-18
c106 i9__net49 vss 123.595e-18
c107 i9__net51 vss 58.4059e-18
c108 i9__net50 vss 98.9679e-18
c109 i9__net52 vss 104.299e-18
c110 i7__net1 vss 83.3093e-18
c111 i7__carry_bar vss 42.7798e-18
c112 i7__net49 vss 124.38e-18
c113 i7__net51 vss 56.9149e-18
c114 i7__net50 vss 97.7831e-18
c115 i7__net52 vss 103.355e-18
c116 i10__net125 vss 117.881e-18
c117 i10__net122 vss 109.834e-18
c118 i10__net114 vss 80.6773e-18
c119 i10__net115 vss 86.871e-18
c120 i10__net124 vss 47.1088e-18
c121 i10__net116 vss 72.9089e-18
c122 i10__net118 vss 146.313e-18
c123 i10__net119 vss 144.087e-18
c124 i10__net121 vss 79.131e-18
c125 i10__net120 vss 80.373e-18
c126 i10__net117 vss 98.881e-18
c127 i10__net123 vss 75.7561e-18
c128 i2__net39 vss 73.3709e-18
c129 i2__net38 vss 99.1241e-18
c130 i2__net37 vss 77.5797e-18
c131 i2__net28 vss 96.9264e-18
c132 i2__net13 vss 78.3475e-18
c133 i2__net12 vss 98.3804e-18
c134 i2__net41 vss 79.5148e-18
c135 i2__net40 vss 96.8539e-18
c136 i2__net27 vss 76.0616e-18
c137 i2__net26 vss 98.3139e-18
c138 i2__net25 vss 77.5758e-18
c139 i2__net24 vss 95.7329e-18
c140 i2__net36 vss 79.0459e-18
c141 i2__net35 vss 104.986e-18
c142 i2__net34 vss 78.5737e-18
c143 i2__net33 vss 96.8322e-18
c144 i2__net2 vss 36.3036e-18
c145 i2__net4 vss 55.6198e-18
c146 i2__net3 vss 36.434e-18
c147 i2__rstb vss 16.2163e-18
c148 i2__net1 vss 36.295e-18
c149 i1__net39 vss 72.583e-18
c150 i1__net38 vss 99.5227e-18
c151 i1__net37 vss 77.458e-18
c152 i1__net28 vss 96.3985e-18
c153 i1__net13 vss 78.2e-18
c154 i1__net12 vss 101.422e-18
c155 i1__net41 vss 77.8307e-18
c156 i1__net40 vss 96.9101e-18
c157 i1__net27 vss 75.7663e-18
c158 i1__net26 vss 100.181e-18
c159 i1__net25 vss 77.983e-18
c160 i1__net24 vss 97.8828e-18
c161 i1__net36 vss 79.0384e-18
c162 i1__net35 vss 105.524e-18
c163 i1__net34 vss 81.7049e-18
c164 i1__net33 vss 95.7939e-18
c165 i1__net2 vss 37.5908e-18
c166 i1__net4 vss 55.6889e-18
c167 i1__net3 vss 36.3865e-18
c168 i1__rstb vss 17.4811e-18
c169 i1__net1 vss 36.9318e-18
c170 i0__net3 vss 31.7708e-18
c171 i0__net15 vss 94.4051e-18
c172 i0__net13 vss 98.9925e-18
c173 i0__net34 vss 97.5192e-18
c174 i0__net20 vss 89.9453e-18
c175 i0__net33 vss 86.8399e-18
c176 i0__net19 vss 101.853e-18
c177 i0__net17 vss 82.3945e-18
c178 i0__net16 vss 94.4845e-18
c179 i0__net6 vss 65.3608e-18
c180 i0__net4 vss 57.9456e-18
c181 i0__net2 vss 67.9047e-18
c182 i0__net1 vss 59.2294e-18
c183 n360__i12__net3 vss 338.944e-18
c184 n357__i12__net3 vss 291.96e-18
c185 n354__i12__net3 vss 285.122e-18
c186 n351__i12__net3 vss 285.021e-18
c187 n348__i12__net3 vss 285.209e-18
c188 n345__i12__net3 vss 284.983e-18
c189 n342__i12__net3 vss 285.063e-18
c190 n339__i12__net3 vss 285.369e-18
c191 n336__i12__net3 vss 285.063e-18
c192 n333__i12__net3 vss 284.983e-18
c193 n330__i12__net3 vss 285.209e-18
c194 n327__i12__net3 vss 284.983e-18
c195 n324__i12__net3 vss 285.063e-18
c196 n321__i12__net3 vss 285.369e-18
c197 n318__i12__net3 vss 285.063e-18
c198 n315__i12__net3 vss 284.983e-18
c199 n312__i12__net3 vss 285.209e-18
c200 n309__i12__net3 vss 284.983e-18
c201 n306__i12__net3 vss 285.063e-18
c202 n303__i12__net3 vss 285.369e-18
c203 n300__i12__net3 vss 285.063e-18
c204 n297__i12__net3 vss 285.021e-18
c205 n294__i12__net3 vss 285.483e-18
c206 n291__i12__net3 vss 285.305e-18
c207 n288__i12__net3 vss 285.261e-18
c208 n285__i12__net3 vss 285.724e-18
c209 n282__i12__net3 vss 285.408e-18
c210 n279__i12__net3 vss 285.217e-18
c211 n276__i12__net3 vss 285.507e-18
c212 n273__i12__net3 vss 285.235e-18
c213 n270__i12__net3 vss 285.261e-18
c214 n267__i12__net3 vss 285.724e-18
c215 n264__i12__net3 vss 285.408e-18
c216 n261__i12__net3 vss 285.217e-18
c217 n258__i12__net3 vss 285.507e-18
c218 n255__i12__net3 vss 285.235e-18
c219 n252__i12__net3 vss 285.261e-18
c220 n249__i12__net3 vss 285.724e-18
c221 n246__i12__net3 vss 285.408e-18
c222 n243__i12__net3 vss 285.217e-18
c223 n240__i12__net3 vss 285.507e-18
c224 n237__i12__net3 vss 285.235e-18
c225 n234__i12__net3 vss 285.261e-18
c226 n231__i12__net3 vss 285.724e-18
c227 n228__i12__net3 vss 285.708e-18
c228 n225__i12__net3 vss 285.444e-18
c229 n222__i12__net3 vss 285.163e-18
c230 n219__i12__net3 vss 284.878e-18
c231 n216__i12__net3 vss 284.754e-18
c232 n213__i12__net3 vss 285.009e-18
c233 n210__i12__net3 vss 285.392e-18
c234 n207__i12__net3 vss 285.246e-18
c235 n204__i12__net3 vss 285.094e-18
c236 n201__i12__net3 vss 285.427e-18
c237 n198__i12__net3 vss 285.286e-18
c238 n195__i12__net3 vss 285.5e-18
c239 n192__i12__net3 vss 286.418e-18
c240 n189__i12__net3 vss 286.244e-18
c241 n186__i12__net3 vss 285.509e-18
c242 n183__i12__net3 vss 285.532e-18
c243 n180__i12__net3 vss 285.217e-18
c244 n177__i12__net3 vss 285.009e-18
c245 n174__i12__net3 vss 285.392e-18
c246 n171__i12__net3 vss 285.246e-18
c247 n168__i12__net3 vss 285.094e-18
c248 n165__i12__net3 vss 285.298e-18
c249 n162__i12__net3 vss 285.067e-18
c250 n159__i12__net3 vss 285.096e-18
c251 n156__i12__net3 vss 285.447e-18
c252 n153__i12__net3 vss 285.03e-18
c253 n150__i12__net3 vss 285.107e-18
c254 n147__i12__net3 vss 285.569e-18
c255 n144__i12__net3 vss 285.239e-18
c256 n141__i12__net3 vss 285.393e-18
c257 n138__i12__net3 vss 285.567e-18
c258 n135__i12__net3 vss 284.951e-18
c259 n132__i12__net3 vss 285.107e-18
c260 n129__i12__net3 vss 285.569e-18
c261 n126__i12__net3 vss 285.239e-18
c262 n123__i12__net3 vss 285.38e-18
c263 n120__i12__net3 vss 285.438e-18
c264 n117__i12__net3 vss 284.911e-18
c265 n114__i12__net3 vss 285.063e-18
c266 n111__i12__net3 vss 285.369e-18
c267 n108__i12__net3 vss 285.063e-18
c268 n105__i12__net3 vss 284.983e-18
c269 n102__i12__net3 vss 285.209e-18
c270 n89__i12__net3 vss 284.983e-18
c271 n86__i12__net3 vss 285.063e-18
c272 n73__i12__net3 vss 285.369e-18
c273 n70__i12__net3 vss 285.063e-18
c274 n57__i12__net3 vss 284.954e-18
c275 n54__i12__net3 vss 284.974e-18
c276 n41__i12__net3 vss 284.723e-18
c277 n38__i12__net3 vss 285.048e-18
c278 n25__i12__net3 vss 289.317e-18
c279 n22__i12__net3 vss 311.573e-18
c280 n9__i12__net3 vss 285.3e-18
c281 n6__i12__net3 vss 288.189e-18
c282 n3__i12__net3 vss 320.532e-18
c283 n40__i12__net2 vss 394.031e-18
c284 n30__i12__net2 vss 320.897e-18
c285 n27__i12__net2 vss 319.182e-18
c286 n24__i12__net2 vss 287.65e-18
c287 n21__i12__net2 vss 287.741e-18
c288 n18__i12__net2 vss 287.648e-18
c289 n15__i12__net2 vss 287.788e-18
c290 n12__i12__net2 vss 287.782e-18
c291 n9__i12__net2 vss 287.454e-18
c292 n6__i12__net2 vss 291.186e-18
c293 n3__i12__net2 vss 341.023e-18
c294 n6__i12__net1 vss 231.685e-18
c295 n3__i12__net1 vss 244.32e-18
c296 n5__r_in vss 88.0435e-18
c297 n2__net5 vss 77.4681e-18
c298 n2__r_in vss 79.8125e-18
c299 n3__serial_out vss 28.7602e-18
c300 n25__clk vss 33.6522e-18
c301 n2__i14__net14 vss 56.8733e-18
c302 n24__i14__shift vss 36.9408e-18
c303 n21__clkb vss 34.0026e-18
c304 n17__i14__shift vss 27.889e-18
c305 n60__rst vss 44.8531e-18
c306 n16__i14__shift vss 31.0516e-18
c307 n21__clk vss 37.6973e-18
c308 n2__i14__net8 vss 56.7149e-18
c309 n9__i14__shift vss 24.8049e-18
c310 n17__clkb vss 36.041e-18
c311 n8__i14__shift vss 33.1483e-18
c312 n54__rst vss 44.5966e-18
c313 n17__clk vss 31.8417e-18
c314 n2__i14__net2 vss 57.0289e-18
c315 n13__clkb vss 36.3764e-18
c316 n48__rst vss 43.926e-18
c317 n17__clk2 vss 45.8702e-18
c318 n69__clk4 vss 48.1996e-18
c319 n5__i10__net116 vss 51.6293e-18
c320 n2__i10__net114 vss 54.51e-18
c321 n13__c0 vss 64.7514e-18
c322 n13__c1 vss 88.4827e-18
c323 n9__net12 vss 78.2053e-18
c324 n6__s1 vss 59.0219e-18
c325 n9__c0 vss 45.0192e-18
c326 n6__s0 vss 41.3987e-18
c327 n9__c1 vss 64.3971e-18
c328 n5__net12 vss 79.8231e-18
c329 n5__c1 vss 83.5332e-18
c330 n5__c0 vss 89.7951e-18
c331 n3__s1 vss 53.5111e-18
c332 n3__s0 vss 54.6708e-18
c333 n6__a1 vss 58.7425e-18
c334 n6__a3 vss 61.8268e-18
c335 n10__a0 vss 41.6591e-18
c336 n10__a2 vss 42.1367e-18
c337 n3__a1 vss 53.7892e-18
c338 n3__a3 vss 53.7781e-18
c339 n5__a0 vss 47.6566e-18
c340 n7__a0 vss 56.3936e-18
c341 n5__a2 vss 47.4875e-18
c342 n7__a2 vss 57.1515e-18
c343 n7__y1 vss 55.7091e-18
c344 n25__rst vss 46.5804e-18
c345 n21__rst vss 45.0732e-18
c346 n8__i1__rstb vss 28.2986e-18
c347 n8__i2__rstb vss 26.5514e-18
c348 n4__x1 vss 47.7079e-18
c349 n35__clk4b vss 34.7316e-18
c350 n33__clk4b vss 34.3356e-18
c351 n4__y3 vss 61.1432e-18
c352 n2__i1__net2 vss 56.5185e-18
c353 n2__i2__net2 vss 56.5442e-18
c354 n1__xin3 vss 58.245e-18
c355 n1__yin3 vss 58.4311e-18
c356 n32__clk4 vss 39.6375e-18
c357 n30__clk4 vss 40.886e-18
c358 n4__x3 vss 46.5564e-18
c359 n5__i1__rstb vss 29.3415e-18
c360 n5__i2__rstb vss 29.8506e-18
c361 n23__clk4b vss 32.9079e-18
c362 n21__clk4b vss 32.6199e-18
c363 n1__xin2 vss 57.9267e-18
c364 n1__yin2 vss 57.6196e-18
c365 n24__clk4 vss 33.9736e-18
c366 n22__clk4 vss 33.6993e-18
c367 n15__clk4b vss 36.2894e-18
c368 n13__clk4b vss 34.8774e-18
c369 n2__i1__net3 vss 55.8168e-18
c370 n2__i2__net3 vss 55.8136e-18
c371 n1__xin1 vss 57.7895e-18
c372 n1__yin1 vss 57.8119e-18
c373 n16__clk4 vss 41.0487e-18
c374 n14__clk4 vss 41.0245e-18
c375 n3__i1__rstb vss 25.7906e-18
c376 n3__i2__rstb vss 25.7207e-18
c377 n4__y0 vss 56.8173e-18
c378 n4__y2 vss 58.6132e-18
c379 n4__x0 vss 47.5324e-18
c380 n7__clk4b vss 32.7956e-18
c381 n5__clk4b vss 31.8709e-18
c382 n4__x2 vss 47.0564e-18
c383 n2__i1__net1 vss 56.2034e-18
c384 n2__i2__net1 vss 55.863e-18
c385 n1__xin0 vss 57.5731e-18
c386 n1__yin0 vss 57.7474e-18
c387 n8__clk4 vss 30.4394e-18
c388 n6__clk4 vss 33.1636e-18
c389 n4__i0__net4 vss 30.0673e-18
c390 n6__i0__net1 vss 33.5613e-18
c391 n2__i0__net6 vss 56.9346e-18
c392 n6__clk2 vss 32.5746e-18
c393 n3__clkb vss 32.4311e-18
c394 n2__i0__net2 vss 57.3362e-18
c395 n3__clk vss 46.0376e-18
c396 n2__clk vss 36.147e-18
c397 n359__i12__net3 vss 204.238e-18
c398 n356__i12__net3 vss 166.952e-18
c399 n353__i12__net3 vss 164.305e-18
c400 n350__i12__net3 vss 164.123e-18
c401 n347__i12__net3 vss 164.17e-18
c402 n344__i12__net3 vss 163.944e-18
c403 n341__i12__net3 vss 164.024e-18
c404 n338__i12__net3 vss 164.329e-18
c405 n335__i12__net3 vss 164.024e-18
c406 n332__i12__net3 vss 163.944e-18
c407 n329__i12__net3 vss 164.17e-18
c408 n326__i12__net3 vss 163.944e-18
c409 n323__i12__net3 vss 164.024e-18
c410 n320__i12__net3 vss 164.329e-18
c411 n317__i12__net3 vss 164.024e-18
c412 n314__i12__net3 vss 163.944e-18
c413 n311__i12__net3 vss 164.17e-18
c414 n308__i12__net3 vss 163.944e-18
c415 n305__i12__net3 vss 164.024e-18
c416 n302__i12__net3 vss 164.329e-18
c417 n299__i12__net3 vss 164.024e-18
c418 n296__i12__net3 vss 163.982e-18
c419 n293__i12__net3 vss 164.444e-18
c420 n290__i12__net3 vss 164.266e-18
c421 n287__i12__net3 vss 164.222e-18
c422 n284__i12__net3 vss 164.685e-18
c423 n281__i12__net3 vss 164.369e-18
c424 n278__i12__net3 vss 164.177e-18
c425 n275__i12__net3 vss 164.468e-18
c426 n272__i12__net3 vss 164.196e-18
c427 n269__i12__net3 vss 164.222e-18
c428 n266__i12__net3 vss 164.685e-18
c429 n263__i12__net3 vss 164.369e-18
c430 n260__i12__net3 vss 164.177e-18
c431 n257__i12__net3 vss 164.468e-18
c432 n254__i12__net3 vss 164.196e-18
c433 n251__i12__net3 vss 164.222e-18
c434 n248__i12__net3 vss 164.685e-18
c435 n245__i12__net3 vss 164.369e-18
c436 n242__i12__net3 vss 164.177e-18
c437 n239__i12__net3 vss 164.468e-18
c438 n236__i12__net3 vss 164.196e-18
c439 n233__i12__net3 vss 164.222e-18
c440 n230__i12__net3 vss 164.685e-18
c441 n227__i12__net3 vss 164.668e-18
c442 n224__i12__net3 vss 164.404e-18
c443 n221__i12__net3 vss 164.123e-18
c444 n218__i12__net3 vss 163.839e-18
c445 n215__i12__net3 vss 163.715e-18
c446 n212__i12__net3 vss 163.97e-18
c447 n209__i12__net3 vss 164.353e-18
c448 n206__i12__net3 vss 164.207e-18
c449 n203__i12__net3 vss 164.055e-18
c450 n200__i12__net3 vss 164.378e-18
c451 n197__i12__net3 vss 164.216e-18
c452 n194__i12__net3 vss 164.339e-18
c453 n191__i12__net3 vss 165.99e-18
c454 n188__i12__net3 vss 166.427e-18
c455 n185__i12__net3 vss 164.47e-18
c456 n182__i12__net3 vss 164.493e-18
c457 n179__i12__net3 vss 164.177e-18
c458 n176__i12__net3 vss 163.97e-18
c459 n173__i12__net3 vss 164.353e-18
c460 n170__i12__net3 vss 164.207e-18
c461 n167__i12__net3 vss 164.055e-18
c462 n164__i12__net3 vss 164.259e-18
c463 n161__i12__net3 vss 164.028e-18
c464 n158__i12__net3 vss 164.056e-18
c465 n155__i12__net3 vss 164.408e-18
c466 n152__i12__net3 vss 163.99e-18
c467 n149__i12__net3 vss 164.068e-18
c468 n146__i12__net3 vss 164.53e-18
c469 n143__i12__net3 vss 164.2e-18
c470 n140__i12__net3 vss 164.354e-18
c471 n137__i12__net3 vss 164.528e-18
c472 n134__i12__net3 vss 163.912e-18
c473 n131__i12__net3 vss 164.068e-18
c474 n128__i12__net3 vss 164.53e-18
c475 n125__i12__net3 vss 164.2e-18
c476 n122__i12__net3 vss 164.341e-18
c477 n119__i12__net3 vss 164.399e-18
c478 n116__i12__net3 vss 163.872e-18
c479 n113__i12__net3 vss 164.024e-18
c480 n110__i12__net3 vss 164.329e-18
c481 n107__i12__net3 vss 164.024e-18
c482 n104__i12__net3 vss 163.944e-18
c483 n101__i12__net3 vss 164.17e-18
c484 n88__i12__net3 vss 163.944e-18
c485 n85__i12__net3 vss 164.024e-18
c486 n72__i12__net3 vss 164.329e-18
c487 n69__i12__net3 vss 164.024e-18
c488 n56__i12__net3 vss 163.915e-18
c489 n53__i12__net3 vss 163.935e-18
c490 n40__i12__net3 vss 163.681e-18
c491 n37__i12__net3 vss 164.008e-18
c492 n24__i12__net3 vss 166.442e-18
c493 n21__i12__net3 vss 178.948e-18
c494 n8__i12__net3 vss 164.259e-18
c495 n5__i12__net3 vss 165.46e-18
c496 n2__i12__net3 vss 181.57e-18
c497 n39__i12__net2 vss 202.748e-18
c498 n29__i12__net2 vss 204.623e-18
c499 n26__i12__net2 vss 164.318e-18
c500 n23__i12__net2 vss 164.003e-18
c501 n20__i12__net2 vss 163.951e-18
c502 n17__i12__net2 vss 163.859e-18
c503 n14__i12__net2 vss 163.998e-18
c504 n11__i12__net2 vss 163.992e-18
c505 n8__i12__net2 vss 163.664e-18
c506 n5__i12__net2 vss 164.883e-18
c507 n2__i12__net2 vss 191.905e-18
c508 n5__i12__net1 vss 142.978e-18
c509 n2__i12__net1 vss 150.177e-18
c510 n4__r_in vss 57.4537e-18
c511 n2__i11__net1 vss 159.108e-18
c512 n2__serial_out vss 197.514e-18
c513 n5__serial_out vss 34.9134e-18
c514 n22__clkb vss 26.5979e-18
c515 n3__i14__net14 vss 61.2831e-18
c516 n3__i14__i2__net1 vss 28.3214e-18
c517 n3__i14__i5__net5 vss 59.7845e-18
c518 n21__i14__shift vss 32.1414e-18
c519 n24__clk vss 27.3442e-18
c520 n20__i14__shift vss 20.5033e-18
c521 n62__rst vss 18.6287e-18
c522 n59__rst vss 20.3045e-18
c523 n3__i14__i1__net1 vss 30.2408e-18
c524 n13__i14__shift vss 32.0599e-18
c525 n18__clkb vss 26.2022e-18
c526 n3__i14__net8 vss 63.6258e-18
c527 n12__i14__shift vss 17.5783e-18
c528 n3__i14__i4__net5 vss 60.1338e-18
c529 n20__clk vss 27.9021e-18
c530 n3__i14__i0__net1 vss 29.8247e-18
c531 n5__i14__shift vss 32.334e-18
c532 n56__rst vss 19.1845e-18
c533 n53__rst vss 18.4169e-18
c534 n4__i14__shift vss 17.1657e-18
c535 n14__clkb vss 25.9787e-18
c536 n3__i14__net2 vss 63.5689e-18
c537 n3__i14__i3__net5 vss 59.9182e-18
c538 n16__clk vss 27.8586e-18
c539 n4__i14__i7__net1 vss 26.3308e-18
c540 n50__rst vss 18.849e-18
c541 n47__rst vss 16.541e-18
c542 n19__clk2 vss 31.2121e-18
c543 n71__clk4 vss 31.348e-18
c544 n8__i10__net116 vss 25.0111e-18
c545 n3__i10__net114 vss 45.7466e-18
c546 n16__c0 vss 67.4261e-18
c547 n16__c1 vss 63.0595e-18
c548 n12__net12 vss 46.3932e-18
c549 n8__s1 vss 77.9397e-18
c550 n12__c0 vss 54.8013e-18
c551 n8__s0 vss 92.8727e-18
c552 n12__c1 vss 57.1308e-18
c553 n8__net12 vss 45.3489e-18
c554 n3__i9__carry_bar vss 59.5852e-18
c555 n4__i10__net116 vss 29.6302e-18
c556 n3__i9__net51 vss 48.4389e-18
c557 n8__c1 vss 63.8926e-18
c558 n8__c0 vss 82.2925e-18
c559 n4__net12 vss 46.9021e-18
c560 n4__s1 vss 46.2136e-18
c561 n5__s1 vss 33.1864e-18
c562 n4__s0 vss 42.1562e-18
c563 n5__s0 vss 34.703e-18
c564 n4__c1 vss 49.064e-18
c565 n4__c0 vss 52.9032e-18
c566 n8__a1 vss 71.7372e-18
c567 n8__a3 vss 79.9402e-18
c568 n12__a0 vss 96.9872e-18
c569 n12__a2 vss 96.9712e-18
c570 n3__i7__carry_bar vss 58.7623e-18
c571 n3__i8__carry_bar vss 63.0812e-18
c572 n3__i7__net51 vss 48.4565e-18
c573 n3__i8__net51 vss 48.268e-18
c574 n4__a1 vss 46.6277e-18
c575 n5__a1 vss 38.405e-18
c576 n4__a3 vss 46.667e-18
c577 n5__a3 vss 38.086e-18
c578 n8__a0 vss 42.6878e-18
c579 n9__a0 vss 35.2084e-18
c580 n8__a2 vss 41.2236e-18
c581 n9__a2 vss 34.9162e-18
c582 n10__y1 vss 32.7908e-18
c583 n28__rst vss 19.7791e-18
c584 n24__rst vss 16.7774e-18
c585 n3__i4__abar vss 71.9529e-18
c586 n15__rst vss 15.0417e-18
c587 n13__rst vss 14.5176e-18
c588 n3__i4__bbar vss 64.2571e-18
c589 n7__x1 vss 45.4334e-18
c590 n39__clk4 vss 25.5784e-18
c591 n37__clk4 vss 26.263e-18
c592 n7__y3 vss 29.1145e-18
c593 n3__i1__net2 vss 58.2073e-18
c594 n3__i2__net2 vss 58.626e-18
c595 n3__i6__abar vss 70.5303e-18
c596 n3__y1 vss 30.871e-18
c597 n3__xin3 vss 62.457e-18
c598 n3__yin3 vss 58.736e-18
c599 n3__i6__bbar vss 65.9492e-18
c600 n3__x1 vss 40.1056e-18
c601 n28__clk4b vss 24.3822e-18
c602 n26__clk4b vss 23.4217e-18
c603 n7__x3 vss 44.191e-18
c604 n11__rst vss 29.8292e-18
c605 n9__rst vss 26.6641e-18
c606 n3__y3 vss 31.7254e-18
c607 n27__clk4 vss 38.5217e-18
c608 n25__clk4 vss 37.721e-18
c609 n3__x3 vss 45.8051e-18
c610 n2__i1__net4 vss 63.8846e-18
c611 n2__i2__net4 vss 64.5426e-18
c612 n3__xin2 vss 62.2189e-18
c613 n3__yin2 vss 59.2785e-18
c614 n20__clk4b vss 22.9037e-18
c615 n18__clk4b vss 23.3525e-18
c616 n19__clk4 vss 25.1425e-18
c617 n17__clk4 vss 24.7336e-18
c618 n3__i1__net3 vss 59.8441e-18
c619 n3__i2__net3 vss 58.3222e-18
c620 n3__xin1 vss 61.1173e-18
c621 n3__yin1 vss 59.1548e-18
c622 n12__clk4b vss 20.9713e-18
c623 n10__clk4b vss 21.9477e-18
c624 n7__y0 vss 30.4287e-18
c625 n7__y2 vss 30.8056e-18
c626 n3__i3__abar vss 71.9686e-18
c627 n8__rst vss 14.8742e-18
c628 n6__rst vss 14.3413e-18
c629 n3__i5__abar vss 72.8103e-18
c630 n3__i3__bbar vss 64.3167e-18
c631 n3__rst vss 19.8992e-18
c632 n1__rst vss 19.4553e-18
c633 n3__i5__bbar vss 64.8701e-18
c634 n7__x0 vss 45.5709e-18
c635 n11__clk4 vss 38.2261e-18
c636 n9__clk4 vss 38.1178e-18
c637 n7__x2 vss 45.7047e-18
c638 n3__i1__net1 vss 59.2285e-18
c639 n3__i2__net1 vss 60.6948e-18
c640 n3__y0 vss 31.1719e-18
c641 n3__xin0 vss 60.6653e-18
c642 n3__yin0 vss 61.7066e-18
c643 n3__y2 vss 31.934e-18
c644 n3__x0 vss 40.5368e-18
c645 n4__clk4b vss 23.4895e-18
c646 n2__clk4b vss 27.1708e-18
c647 n3__x2 vss 41.3299e-18
c648 n4__clk4 vss 22.1988e-18
c649 n7__i0__net4 vss 21.637e-18
c650 n4__i0__net3 vss 20.2671e-18
c651 n7__clk2 vss 26.5919e-18
c652 n3__i0__net6 vss 59.1694e-18
c653 n3__i0__net4 vss 63.4601e-18
c654 n5__i0__net1 vss 23.1477e-18
c655 n4__clk2 vss 17.825e-18
c656 n7__clk vss 24.8482e-18
c657 n3__i0__net2 vss 61.2087e-18
c658 n6__clk vss 32.7612e-18
c659 n3__i0__net1 vss 63.7335e-18
c660 n2__clkb vss 25.0864e-18
c661 n358__i12__net3 vss 58.5487e-18
c662 n355__i12__net3 vss 43.4935e-18
c663 n352__i12__net3 vss 43.014e-18
c664 n349__i12__net3 vss 42.7716e-18
c665 n346__i12__net3 vss 42.6442e-18
c666 n343__i12__net3 vss 42.6063e-18
c667 n340__i12__net3 vss 42.5323e-18
c668 n337__i12__net3 vss 42.5489e-18
c669 n334__i12__net3 vss 42.5881e-18
c670 n331__i12__net3 vss 42.4944e-18
c671 n328__i12__net3 vss 42.6442e-18
c672 n325__i12__net3 vss 42.6063e-18
c673 n322__i12__net3 vss 42.5323e-18
c674 n319__i12__net3 vss 42.5489e-18
c675 n316__i12__net3 vss 42.5881e-18
c676 n313__i12__net3 vss 42.4944e-18
c677 n310__i12__net3 vss 42.6442e-18
c678 n307__i12__net3 vss 42.6063e-18
c679 n304__i12__net3 vss 42.5323e-18
c680 n301__i12__net3 vss 42.5489e-18
c681 n298__i12__net3 vss 42.5881e-18
c682 n295__i12__net3 vss 42.4944e-18
c683 n292__i12__net3 vss 42.6442e-18
c684 n289__i12__net3 vss 42.4384e-18
c685 n286__i12__net3 vss 42.8446e-18
c686 n283__i12__net3 vss 43.5019e-18
c687 n280__i12__net3 vss 42.7413e-18
c688 n277__i12__net3 vss 43.5607e-18
c689 n274__i12__net3 vss 42.7972e-18
c690 n271__i12__net3 vss 42.4384e-18
c691 n268__i12__net3 vss 42.8446e-18
c692 n265__i12__net3 vss 43.5019e-18
c693 n262__i12__net3 vss 42.7413e-18
c694 n259__i12__net3 vss 43.5607e-18
c695 n256__i12__net3 vss 42.7972e-18
c696 n253__i12__net3 vss 42.4384e-18
c697 n250__i12__net3 vss 42.8446e-18
c698 n247__i12__net3 vss 43.5019e-18
c699 n244__i12__net3 vss 42.7413e-18
c700 n241__i12__net3 vss 43.5607e-18
c701 n238__i12__net3 vss 42.7972e-18
c702 n235__i12__net3 vss 42.4384e-18
c703 n232__i12__net3 vss 42.8446e-18
c704 n229__i12__net3 vss 43.5019e-18
c705 n226__i12__net3 vss 42.7413e-18
c706 n223__i12__net3 vss 43.5607e-18
c707 n220__i12__net3 vss 42.7972e-18
c708 n217__i12__net3 vss 42.6049e-18
c709 n214__i12__net3 vss 42.5321e-18
c710 n211__i12__net3 vss 42.5504e-18
c711 n208__i12__net3 vss 42.5882e-18
c712 n205__i12__net3 vss 42.8067e-18
c713 n202__i12__net3 vss 42.4763e-18
c714 n199__i12__net3 vss 42.6049e-18
c715 n196__i12__net3 vss 42.5321e-18
c716 n193__i12__net3 vss 42.5504e-18
c717 n190__i12__net3 vss 42.5882e-18
c718 n187__i12__net3 vss 42.8067e-18
c719 n184__i12__net3 vss 42.4763e-18
c720 n181__i12__net3 vss 42.6049e-18
c721 n178__i12__net3 vss 42.5321e-18
c722 n175__i12__net3 vss 42.5504e-18
c723 n172__i12__net3 vss 42.5882e-18
c724 n169__i12__net3 vss 42.8067e-18
c725 n166__i12__net3 vss 42.4763e-18
c726 n163__i12__net3 vss 42.6049e-18
c727 n160__i12__net3 vss 42.5321e-18
c728 n157__i12__net3 vss 42.5504e-18
c729 n154__i12__net3 vss 42.5882e-18
c730 n151__i12__net3 vss 42.4944e-18
c731 n148__i12__net3 vss 42.6442e-18
c732 n145__i12__net3 vss 42.437e-18
c733 n142__i12__net3 vss 42.8434e-18
c734 n139__i12__net3 vss 43.512e-18
c735 n136__i12__net3 vss 42.7413e-18
c736 n133__i12__net3 vss 42.4944e-18
c737 n130__i12__net3 vss 42.6442e-18
c738 n127__i12__net3 vss 42.437e-18
c739 n124__i12__net3 vss 42.8434e-18
c740 n121__i12__net3 vss 43.512e-18
c741 n118__i12__net3 vss 42.7413e-18
c742 n115__i12__net3 vss 42.6063e-18
c743 n112__i12__net3 vss 42.5323e-18
c744 n109__i12__net3 vss 42.5489e-18
c745 n106__i12__net3 vss 42.5881e-18
c746 n103__i12__net3 vss 42.4944e-18
c747 n100__i12__net3 vss 42.6442e-18
c748 n87__i12__net3 vss 42.6063e-18
c749 n84__i12__net3 vss 42.5323e-18
c750 n71__i12__net3 vss 42.5489e-18
c751 n68__i12__net3 vss 42.5881e-18
c752 n55__i12__net3 vss 42.4944e-18
c753 n52__i12__net3 vss 42.6442e-18
c754 n39__i12__net3 vss 42.5504e-18
c755 n36__i12__net3 vss 42.5882e-18
c756 n23__i12__net3 vss 42.8067e-18
c757 n20__i12__net3 vss 42.4763e-18
c758 n7__i12__net3 vss 42.6049e-18
c759 n4__i12__net3 vss 42.1955e-18
c760 n38__i12__net2 vss 57.352e-18
c761 n28__i12__net2 vss 42.7368e-18
c762 n25__i12__net2 vss 42.0904e-18
c763 n22__i12__net2 vss 42.6905e-18
c764 n19__i12__net2 vss 41.7866e-18
c765 n16__i12__net2 vss 42.2293e-18
c766 n13__i12__net2 vss 41.7803e-18
c767 n10__i12__net2 vss 42.1049e-18
c768 n7__i12__net2 vss 41.7082e-18
c769 n4__i12__net2 vss 41.8126e-18
c770 n4__i12__net1 vss 58.6196e-18
c771 n3__r_in vss 165.925e-18
c772 n4__serial_out vss 78.3174e-18
c773 n23__clkb vss 98.8304e-18
c774 n26__clk vss 44.6935e-18
c775 n23__i14__shift vss 28.9217e-18
c776 n4__i14__i2__net1 vss 93.2412e-18
c777 n2__i14__i5__net5 vss 40.3216e-18
c778 n22__i14__shift vss 20.9221e-18
c779 n2__i14__i2__net1 vss 28.3287e-18
c780 n20__clkb vss 116.461e-18
c781 n23__clk vss 38.3564e-18
c782 n61__rst vss 53.9148e-18
c783 n19__i14__shift vss 11.5857e-18
c784 n2__i14__i5__rstb vss 86.8324e-18
c785 n57__rst vss 28.6773e-18
c786 n15__i14__shift vss 23.8809e-18
c787 n4__i14__i1__net1 vss 106.713e-18
c788 n14__i14__shift vss 19.2701e-18
c789 n2__i14__i1__net1 vss 26.8621e-18
c790 n19__clkb vss 102.128e-18
c791 n22__clk vss 45.362e-18
c792 n11__i14__shift vss 12.2137e-18
c793 n2__i14__i4__net5 vss 38.2525e-18
c794 n16__clkb vss 117.041e-18
c795 n19__clk vss 38.6597e-18
c796 n7__i14__shift vss 23.5827e-18
c797 n4__i14__i0__net1 vss 110.051e-18
c798 n55__rst vss 53.4575e-18
c799 n6__i14__shift vss 19.9781e-18
c800 n2__i14__i0__net1 vss 25.9916e-18
c801 n2__i14__i4__rstb vss 87.2426e-18
c802 n51__rst vss 128.355e-18
c803 n3__i14__shift vss 10.1142e-18
c804 n15__clkb vss 102.465e-18
c805 n18__clk vss 44.7902e-18
c806 n2__i14__i3__net5 vss 37.0721e-18
c807 n12__clkb vss 114.063e-18
c808 n15__clk vss 39.0519e-18
c809 n49__rst vss 51.7429e-18
c810 n3__i14__i7__net1 vss 23.5039e-18
c811 n2__i14__i3__rstb vss 84.5389e-18
c812 n45__rst vss 31.0407e-18
c813 n18__clk2 vss 36.1485e-18
c814 n70__clk4 vss 36.7156e-18
c815 n7__i10__net116 vss 47.2782e-18
c816 n6__i10__net114 vss 48.2959e-18
c817 n15__c0 vss 106.18e-18
c818 n15__c1 vss 143.571e-18
c819 n11__net12 vss 120.186e-18
c820 n7__s1 vss 94.7818e-18
c821 n11__c0 vss 237.47e-18
c822 n7__s0 vss 94.0353e-18
c823 n11__c1 vss 275.398e-18
c824 n7__net12 vss 276.379e-18
c825 n2__i9__carry_bar vss 109.437e-18
c826 n3__i10__net116 vss 13.1455e-18
c827 n2__i9__net51 vss 56.1302e-18
c828 n7__c1 vss 279.426e-18
c829 n7__c0 vss 239.654e-18
c830 n2__s1 vss 34.2566e-18
c831 n3__net12 vss 289.468e-18
c832 n2__s0 vss 33.4688e-18
c833 n3__c1 vss 191.361e-18
c834 n3__c0 vss 379.427e-18
c835 n7__a1 vss 82.2787e-18
c836 n7__a3 vss 94.4498e-18
c837 n11__a0 vss 98.226e-18
c838 n11__a2 vss 99.9567e-18
c839 n2__i7__carry_bar vss 110.595e-18
c840 n2__i8__carry_bar vss 109.678e-18
c841 n2__i7__net51 vss 56.6688e-18
c842 n2__i8__net51 vss 100.766e-18
c843 n2__a1 vss 35.4308e-18
c844 n2__a3 vss 34.6503e-18
c845 n6__a0 vss 34.5492e-18
c846 n6__a2 vss 34.2673e-18
c847 n9__y1 vss 45.9874e-18
c848 n27__rst vss 83.4209e-18
c849 n23__rst vss 86.9205e-18
c850 n7__i1__rstb vss 36.2329e-18
c851 n7__i2__rstb vss 36.7319e-18
c852 n2__i4__abar vss 310.823e-18
c853 n16__rst vss 21.0867e-18
c854 n14__rst vss 20.65e-18
c855 n2__i4__bbar vss 176.332e-18
c856 n6__x1 vss 67.2902e-18
c857 n40__clk4 vss 39.0842e-18
c858 n38__clk4 vss 40.2024e-18
c859 n36__clk4b vss 116.358e-18
c860 n34__clk4b vss 117.916e-18
c861 n6__y3 vss 40.5402e-18
c862 n2__i6__abar vss 312.428e-18
c863 n2__y1 vss 33.5483e-18
c864 n2__xin3 vss 74.0933e-18
c865 n2__yin3 vss 35.2616e-18
c866 n2__i6__bbar vss 173.413e-18
c867 n31__clk4 vss 46.8295e-18
c868 n27__clk4b vss 92.7055e-18
c869 n29__clk4 vss 46.4717e-18
c870 n25__clk4b vss 92.6574e-18
c871 n2__x1 vss 36.2263e-18
c872 n6__x3 vss 71.1825e-18
c873 n6__i1__rstb vss 22.595e-18
c874 n6__i2__rstb vss 23.9848e-18
c875 n2__y3 vss 33.4707e-18
c876 n12__rst vss 33.5862e-18
c877 n10__rst vss 33.5125e-18
c878 n24__clk4b vss 121.776e-18
c879 n28__clk4 vss 94.0186e-18
c880 n2__x3 vss 37.1917e-18
c881 n22__clk4b vss 122.068e-18
c882 n26__clk4 vss 46.4741e-18
c883 n3__i1__net4 vss 69.9827e-18
c884 n3__i2__net4 vss 36.6797e-18
c885 n2__xin2 vss 83.8022e-18
c886 n2__yin2 vss 91.5499e-18
c887 n23__clk4 vss 42.5675e-18
c888 n19__clk4b vss 95.6312e-18
c889 n21__clk4 vss 42.0045e-18
c890 n17__clk4b vss 95.3481e-18
c891 n20__clk4 vss 38.262e-18
c892 n18__clk4 vss 38.863e-18
c893 n16__clk4b vss 113.612e-18
c894 n14__clk4b vss 115.02e-18
c895 n2__xin1 vss 82.0902e-18
c896 n2__yin1 vss 35.3982e-18
c897 n15__clk4 vss 47.8353e-18
c898 n11__clk4b vss 92.5429e-18
c899 n13__clk4 vss 47.3713e-18
c900 n9__clk4b vss 92.6171e-18
c901 n4__i1__rstb vss 20.2174e-18
c902 n4__i2__rstb vss 20.6143e-18
c903 n2__i1__rstb vss 50.765e-18
c904 n2__i2__rstb vss 49.5075e-18
c905 n6__y0 vss 69.4244e-18